Version 4
SHEET 1 1668 680
WIRE 1344 32 1344 16
WIRE 1344 32 1088 32
WIRE 1392 32 1344 32
WIRE 560 48 448 48
WIRE 704 48 624 48
WIRE 128 80 128 64
WIRE 592 80 128 80
WIRE 128 96 128 80
WIRE 592 96 592 80
WIRE 976 96 592 96
WIRE 1248 96 976 96
WIRE 1472 96 1472 32
WIRE 32 112 -32 112
WIRE 96 112 32 112
WIRE 592 112 592 96
WIRE 1248 112 1248 96
WIRE 176 128 160 128
WIRE 368 128 176 128
WIRE 448 128 448 48
WIRE 560 128 528 128
WIRE 976 128 976 96
WIRE 1088 128 1088 112
WIRE 1216 128 1088 128
WIRE -32 144 -32 112
WIRE 80 144 64 144
WIRE 96 144 80 144
WIRE 704 144 704 48
WIRE 704 144 624 144
WIRE 768 144 704 144
WIRE 848 144 832 144
WIRE 944 144 848 144
WIRE 1088 144 1088 128
WIRE 1296 144 1280 144
WIRE 1328 144 1296 144
WIRE 560 160 544 160
WIRE 1040 160 1008 160
WIRE 1120 160 1040 160
WIRE 1216 160 1200 160
WIRE 80 176 80 144
WIRE 176 176 176 128
WIRE 176 176 160 176
WIRE 944 176 912 176
WIRE 1248 176 1248 160
WIRE 128 192 128 160
WIRE 592 192 592 176
WIRE 592 192 128 192
WIRE 976 192 592 192
WIRE 1248 192 1248 176
WIRE 1248 192 976 192
WIRE -32 224 -32 208
WIRE 544 224 544 160
WIRE 704 224 544 224
WIRE 912 224 912 176
WIRE 960 224 912 224
WIRE 1040 224 1040 160
WIRE 1200 224 1200 160
WIRE 1216 224 1200 224
WIRE 1296 224 1296 144
WIRE 32 240 32 112
WIRE 64 240 64 144
WIRE 128 240 128 192
WIRE 528 240 528 128
WIRE 848 240 848 144
WIRE 912 240 912 224
WIRE 1472 240 1472 192
WIRE -32 320 -32 304
WIRE 528 320 528 304
WIRE 704 320 704 304
FLAG -32 320 0
FLAG 128 -16 0
FLAG 128 320 0
FLAG 528 320 0
FLAG 704 320 0
FLAG 848 320 0
FLAG 1344 -64 0
FLAG 1472 240 0
FLAG 912 320 0
FLAG 64 320 0
FLAG 32 320 0
FLAG 1088 224 0
SYMBOL voltage -32 320 R180
WINDOW 123 0 0 Left 2
WINDOW 39 0 0 Left 2
SYMATTR InstName V1
SYMATTR Value SINE(0 0.1 400k 25u 0 0 6)
SYMBOL Opamps\\LT1464 128 192 M180
SYMATTR InstName U1
SYMBOL res 176 160 R90
WINDOW 0 0 56 VBottom 2
WINDOW 3 32 56 VTop 2
SYMATTR InstName R1
SYMATTR Value 100k
SYMBOL res 48 224 R0
SYMATTR InstName R2
SYMATTR Value 2k
SYMBOL voltage 128 224 R0
WINDOW 123 0 0 Left 2
WINDOW 39 0 0 Left 2
SYMATTR InstName V2
SYMATTR Value +12
SYMBOL voltage 128 80 R180
WINDOW 0 24 96 Left 2
WINDOW 3 24 16 Left 2
WINDOW 123 0 0 Left 2
WINDOW 39 0 0 Left 2
SYMATTR InstName V3
SYMATTR Value -12
SYMBOL cap 832 128 R90
WINDOW 0 0 32 VBottom 2
WINDOW 3 32 32 VTop 2
SYMATTR InstName C1
SYMATTR Value 10p
SYMBOL res 464 112 R90
WINDOW 0 0 56 VBottom 2
WINDOW 3 32 56 VTop 2
SYMATTR InstName R3
SYMATTR Value 33k
SYMBOL res 544 112 R90
WINDOW 0 0 56 VBottom 2
WINDOW 3 32 56 VTop 2
SYMATTR InstName R4
SYMATTR Value 33k
SYMBOL Opamps\\LT1464 976 224 M180
WINDOW 3 21 95 Left 2
SYMATTR InstName U2
SYMBOL Opamps\\LT1464 592 208 M180
SYMATTR InstName U3
SYMBOL cap 512 240 R0
SYMATTR InstName C2
SYMATTR Value 100p
SYMBOL cap 624 32 R90
WINDOW 0 0 32 VBottom 2
WINDOW 3 32 32 VTop 2
SYMATTR InstName C3
SYMATTR Value 100p
SYMBOL res 688 128 R0
SYMATTR InstName R5
SYMATTR Value 33k
SYMBOL res 688 208 R0
SYMATTR InstName R6
SYMATTR Value 82k
SYMBOL res 864 224 M0
SYMATTR InstName R7
SYMATTR Value 400k
SYMBOL voltage 1344 32 R180
WINDOW 0 24 96 Left 2
WINDOW 3 24 16 Left 2
WINDOW 123 0 0 Left 2
WINDOW 39 0 0 Left 2
SYMATTR InstName V4
SYMATTR Value 5
SYMBOL npn 1408 96 R0
SYMATTR InstName Q1
SYMATTR Value BC337-40
SYMBOL res 1488 16 R90
WINDOW 0 0 56 VBottom 2
WINDOW 3 32 56 VTop 2
SYMATTR InstName R12
SYMATTR Value 10k
SYMBOL res 896 224 R0
SYMATTR InstName R13
SYMATTR Value 5k
SYMBOL res 1056 208 R90
WINDOW 0 0 56 VBottom 2
WINDOW 3 32 56 VTop 2
SYMATTR InstName R14
SYMATTR Value 10k
SYMBOL res 1424 128 R90
WINDOW 0 0 56 VBottom 2
WINDOW 3 32 56 VTop 2
SYMATTR InstName R10
SYMATTR Value 100
SYMBOL cap -48 144 R0
SYMATTR InstName C5
SYMATTR Value 10n
SYMBOL res 16 224 R0
SYMATTR InstName R11
SYMATTR Value 400k
SYMBOL Opamps\\LT1464 1248 208 M180
WINDOW 3 21 95 Left 2
SYMATTR InstName U4
SYMBOL res 1072 16 R0
SYMATTR InstName R9
SYMATTR Value 100k
SYMBOL res 1072 128 R0
SYMATTR InstName R15
SYMATTR Value 5k
SYMBOL res 1216 144 R90
WINDOW 0 0 56 VBottom 2
WINDOW 3 32 56 VTop 2
SYMATTR InstName R16
SYMATTR Value 10k
SYMBOL res 1312 208 R90
WINDOW 0 0 56 VBottom 2
WINDOW 3 32 56 VTop 2
SYMATTR InstName R17
SYMATTR Value 10k
TEXT -256 304 Left 2 !.tran 0.0003
