Version 4
SHEET 1 1456 680
WIRE 944 32 928 32
WIRE 1040 32 1024 32
WIRE 560 48 448 48
WIRE 704 48 624 48
WIRE 1168 48 1168 32
WIRE 1216 48 1168 48
WIRE 1168 64 1168 48
WIRE 128 80 128 64
WIRE 592 80 128 80
WIRE 128 96 128 80
WIRE 592 96 592 80
WIRE 960 96 592 96
WIRE 96 112 -32 112
WIRE 592 112 592 96
WIRE 1296 112 1296 48
WIRE 224 128 160 128
WIRE 272 128 224 128
WIRE 352 128 336 128
WIRE 368 128 352 128
WIRE 448 128 448 48
WIRE 560 128 528 128
WIRE 960 128 960 96
WIRE 992 128 976 128
WIRE 96 144 80 144
WIRE 704 144 704 48
WIRE 704 144 624 144
WIRE 768 144 704 144
WIRE 928 144 928 32
WIRE 928 144 912 144
WIRE 944 144 928 144
WIRE 560 160 544 160
WIRE 1040 160 1040 32
WIRE 1040 160 1008 160
WIRE 1072 160 1040 160
WIRE 1168 160 1168 144
WIRE 1168 160 1136 160
WIRE 1232 160 1168 160
WIRE 352 176 352 128
WIRE 944 176 928 176
WIRE 1168 176 1168 160
WIRE 128 192 128 160
WIRE 592 192 592 176
WIRE 592 192 128 192
WIRE 912 192 592 192
WIRE 976 192 960 128
WIRE -32 208 -32 192
WIRE 912 208 912 192
WIRE 992 208 992 128
WIRE 992 208 912 208
WIRE 80 224 80 144
WIRE 224 224 224 208
WIRE 224 224 80 224
WIRE 544 224 544 160
WIRE 704 224 544 224
WIRE 928 224 928 176
WIRE 128 240 128 192
WIRE 224 240 224 224
WIRE 528 240 528 128
WIRE 1296 256 1296 208
WIRE 528 320 528 304
WIRE 704 320 704 304
FLAG -32 208 0
FLAG 224 320 0
FLAG 128 -16 0
FLAG 128 320 0
FLAG 528 320 0
FLAG 704 320 0
FLAG 352 256 0
FLAG 928 224 0
FLAG 1168 -48 0
FLAG 1168 256 0
FLAG 1296 256 0
SYMBOL voltage -32 208 R180
WINDOW 123 0 0 Left 2
WINDOW 39 0 0 Left 2
SYMATTR InstName V1
SYMATTR Value SINE(0 0.01 40k 25u 0 0 6)
SYMBOL Opamps\\LT1464 128 192 M180
SYMATTR InstName U1
SYMBOL res 208 112 R0
SYMATTR InstName R1
SYMATTR Value 100k
SYMBOL res 208 224 R0
SYMATTR InstName R2
SYMATTR Value 2k
SYMBOL voltage 128 224 R0
WINDOW 123 0 0 Left 2
WINDOW 39 0 0 Left 2
SYMATTR InstName V2
SYMATTR Value +12
SYMBOL voltage 128 80 R180
WINDOW 0 24 96 Left 2
WINDOW 3 24 16 Left 2
WINDOW 123 0 0 Left 2
WINDOW 39 0 0 Left 2
SYMATTR InstName V3
SYMATTR Value -12
SYMBOL cap 832 128 R90
WINDOW 0 0 32 VBottom 2
WINDOW 3 32 32 VTop 2
SYMATTR InstName C1
SYMATTR Value 10n
SYMBOL res 464 112 R90
WINDOW 0 0 56 VBottom 2
WINDOW 3 32 56 VTop 2
SYMATTR InstName R3
SYMATTR Value 390k
SYMBOL res 544 112 R90
WINDOW 0 0 56 VBottom 2
WINDOW 3 32 56 VTop 2
SYMATTR InstName R4
SYMATTR Value 390k
SYMBOL Opamps\\LT1464 976 96 R0
WINDOW 3 21 95 Left 2
SYMATTR InstName U2
SYMBOL Opamps\\LT1464 592 208 M180
SYMATTR InstName U3
SYMBOL cap 512 240 R0
SYMATTR InstName C2
SYMATTR Value 10p
SYMBOL cap 624 32 R90
WINDOW 0 0 32 VBottom 2
WINDOW 3 32 32 VTop 2
SYMATTR InstName C3
SYMATTR Value 10p
SYMBOL res 688 128 R0
SYMATTR InstName R5
SYMATTR Value 330k
SYMBOL res 688 208 R0
SYMATTR InstName R6
SYMATTR Value 560k
SYMBOL res 816 160 R270
WINDOW 0 32 56 VTop 2
WINDOW 3 0 56 VBottom 2
SYMATTR InstName R7
SYMATTR Value 40k
SYMBOL cap 336 112 R90
WINDOW 0 0 32 VBottom 2
WINDOW 3 32 32 VTop 2
SYMATTR InstName C4
SYMATTR Value 10p
SYMBOL res 336 160 R0
SYMATTR InstName R8
SYMATTR Value 400k
SYMBOL res 1040 16 R90
WINDOW 0 0 56 VBottom 2
WINDOW 3 32 56 VTop 2
SYMATTR InstName R9
SYMATTR Value 200k
SYMBOL voltage 1168 48 R180
WINDOW 0 24 96 Left 2
WINDOW 3 24 16 Left 2
WINDOW 123 0 0 Left 2
WINDOW 39 0 0 Left 2
SYMATTR InstName V4
SYMATTR Value 5
SYMBOL res 1152 48 R0
SYMATTR InstName R10
SYMATTR Value 47k
SYMBOL res 1152 160 R0
SYMATTR InstName R11
SYMATTR Value 3k
SYMBOL npn 1232 112 R0
SYMATTR InstName Q1
SYMATTR Value BC337-40
SYMBOL res 1312 32 R90
WINDOW 0 0 56 VBottom 2
WINDOW 3 32 56 VTop 2
SYMATTR InstName R12
SYMATTR Value 10k
SYMBOL cap 1136 144 R90
WINDOW 0 0 32 VBottom 2
WINDOW 3 32 32 VTop 2
SYMATTR InstName C5
SYMATTR Value 10n
TEXT -232 344 Left 2 !.tran 0.00025
