Version 4
SHEET 1 980 680
WIRE 688 208 560 208
WIRE 752 208 688 208
WIRE 752 224 752 208
WIRE 560 240 560 208
WIRE 688 272 672 272
WIRE 320 288 320 208
WIRE 64 336 48 336
WIRE 176 336 144 336
WIRE 560 336 560 320
WIRE 592 336 592 272
WIRE 592 336 560 336
WIRE 752 336 752 320
WIRE 800 336 752 336
WIRE 560 352 560 336
WIRE 752 352 752 336
WIRE 320 400 320 384
WIRE 336 400 320 400
WIRE 416 400 400 400
WIRE 688 400 672 400
WIRE 320 416 320 400
WIRE 320 512 320 496
WIRE 560 512 560 448
WIRE 560 512 320 512
WIRE 752 512 752 448
WIRE 752 512 560 512
WIRE 320 528 320 512
FLAG 48 336 0
FLAG 320 608 0
FLAG 320 128 0
FLAG 560 64 0
FLAG 864 336 0
SYMBOL voltage 160 336 R90
WINDOW 0 -32 56 VBottom 2
WINDOW 3 33 238 VTop 2
WINDOW 123 0 0 Left 2
WINDOW 39 0 0 Left 2
SYMATTR InstName V3
SYMATTR Value PULSE(0 5 0 0.0000001 0.0000001 0.0000125 0.000025)
SYMBOL pnp 256 384 M180
SYMATTR InstName Q2
SYMBOL res 272 320 R90
WINDOW 0 0 56 VBottom 2
WINDOW 3 32 56 VTop 2
SYMATTR InstName R4
SYMATTR Value 10k
SYMBOL voltage 320 624 R180
WINDOW 0 24 96 Left 2
WINDOW 3 24 16 Left 2
WINDOW 123 0 0 Left 2
WINDOW 39 24 -12 Left 2
SYMATTR InstName V2
SYMATTR Value 12
SYMATTR SpiceLine Rser=5
SYMBOL res 336 512 R180
WINDOW 0 36 76 Left 2
WINDOW 3 36 40 Left 2
SYMATTR InstName R1
SYMATTR Value 2k
SYMBOL voltage 320 224 R180
WINDOW 0 24 96 Left 2
WINDOW 3 24 16 Left 2
WINDOW 123 0 0 Left 2
WINDOW 39 24 -12 Left 2
SYMATTR InstName V1
SYMATTR Value 5
SYMATTR SpiceLine Rser=5
SYMBOL voltage 560 160 R180
WINDOW 0 24 96 Left 2
WINDOW 3 24 16 Left 2
WINDOW 123 0 0 Left 2
WINDOW 39 24 -12 Left 2
SYMATTR InstName V4
SYMATTR Value 12
SYMATTR SpiceLine Rser=5
SYMBOL res 576 336 R180
WINDOW 0 36 76 Left 2
WINDOW 3 36 40 Left 2
SYMATTR InstName R2
SYMATTR Value 2k
SYMBOL npn 496 352 R0
SYMATTR InstName Q1
SYMATTR Value BC337-25
SYMBOL res 512 384 R90
WINDOW 0 0 56 VBottom 2
WINDOW 3 32 56 VTop 2
SYMATTR InstName R3
SYMATTR Value 2k
SYMBOL npn 688 352 R0
SYMATTR InstName Q3
SYMATTR Value BC337-25
SYMBOL pnp 688 320 M180
SYMATTR InstName Q4
SYMBOL res 688 384 R90
WINDOW 0 0 56 VBottom 2
WINDOW 3 32 56 VTop 2
SYMATTR InstName R5
SYMATTR Value 20k
SYMBOL res 576 288 R270
WINDOW 0 32 56 VTop 2
WINDOW 3 0 56 VBottom 2
SYMATTR InstName R6
SYMATTR Value 20k
SYMBOL zener 400 384 R90
WINDOW 0 0 32 VBottom 2
WINDOW 3 32 32 VTop 2
SYMATTR InstName D2
SYMATTR Value BZX84C15L
SYMATTR Description Diode
SYMATTR Type diode
SYMBOL zener 608 400 R180
WINDOW 0 24 64 Left 2
WINDOW 3 24 0 Left 2
SYMATTR InstName D1
SYMATTR Value BZX84C15L
SYMATTR Description Diode
SYMATTR Type diode
SYMBOL zener 576 208 R180
WINDOW 0 24 64 Left 2
WINDOW 3 24 0 Left 2
SYMATTR InstName D3
SYMATTR Value 1N750
SYMATTR Description Diode
SYMATTR Type diode
SYMBOL schottky 704 272 R180
WINDOW 0 24 64 Left 2
WINDOW 3 24 0 Left 2
SYMATTR InstName D4
SYMATTR Value BAT54
SYMATTR Description Diode
SYMATTR Type diode
SYMBOL cap 864 320 R90
WINDOW 0 0 32 VBottom 2
WINDOW 3 32 32 VTop 2
SYMATTR InstName C1
SYMATTR Value 2.55n
TEXT -48 288 Left 2 !.tran 0 0.0001 0
