Version 4
SHEET 1 880 680
WIRE 320 -64 320 -96
WIRE 320 16 320 0
WIRE 128 64 64 64
WIRE 256 64 208 64
WIRE -128 144 -144 144
WIRE 64 144 64 64
WIRE 64 144 -48 144
WIRE 320 144 320 112
WIRE 416 144 320 144
WIRE 512 144 480 144
WIRE 320 160 320 144
WIRE 512 160 512 144
WIRE 128 208 64 208
WIRE 256 208 208 208
WIRE 320 304 320 256
FLAG 512 160 0
FLAG 320 -176 0
FLAG 320 384 0
FLAG -144 144 0
SYMBOL res 224 48 R90
WINDOW 0 0 56 VBottom 2
WINDOW 3 32 56 VTop 2
SYMATTR InstName R1
SYMATTR Value 1000
SYMBOL res 224 192 R90
WINDOW 0 0 56 VBottom 2
WINDOW 3 32 56 VTop 2
SYMATTR InstName R2
SYMATTR Value 1k
SYMBOL zener 80 208 R180
WINDOW 0 24 64 Left 2
WINDOW 3 24 0 Left 2
SYMATTR InstName D1
SYMATTR Value BZX84C12L
SYMBOL npn 256 16 R0
SYMATTR InstName Q1
SYMATTR Value BC337-25
SYMBOL pnp 256 160 R0
SYMATTR InstName Q2
SYMATTR Value BC327-25
SYMBOL zener 336 0 R180
WINDOW 0 24 64 Left 2
WINDOW 3 24 0 Left 2
SYMATTR InstName D2
SYMATTR Value 1N750
SYMBOL cap 480 128 R90
WINDOW 0 0 32 VBottom 2
WINDOW 3 32 32 VTop 2
SYMATTR InstName C2
SYMATTR Value 2.55n
SYMBOL voltage 320 -80 R180
WINDOW 0 24 96 Left 2
WINDOW 3 24 16 Left 2
WINDOW 123 0 0 Left 2
WINDOW 39 0 0 Left 2
SYMATTR InstName V1
SYMATTR Value 12
SYMBOL voltage 320 288 R0
WINDOW 123 0 0 Left 2
WINDOW 39 0 0 Left 2
SYMATTR InstName V2
SYMATTR Value -12
SYMBOL voltage -32 144 R90
WINDOW 0 -32 56 VBottom 2
WINDOW 3 31 124 VTop 2
WINDOW 123 0 0 Left 2
WINDOW 39 0 0 Left 2
SYMATTR InstName V3
SYMATTR Value PULSE(0 5 0 0 0 0.0000125 0.000025)
TEXT -202 408 Left 2 !.tran 0 0.0001 0
