Version 4
SHEET 1 1076 692
WIRE 768 64 656 64
WIRE 496 80 496 64
WIRE 656 80 656 64
WIRE 768 80 768 64
WIRE 496 176 496 160
WIRE 656 208 656 160
WIRE 704 208 656 208
WIRE 272 224 256 224
WIRE 656 256 656 208
WIRE 496 304 496 272
WIRE 592 304 496 304
WIRE 768 336 768 320
WIRE 800 336 768 336
WIRE 880 336 864 336
WIRE 496 352 496 304
WIRE 768 368 768 336
WIRE 656 400 656 352
WIRE 704 400 656 400
WIRE 656 432 656 400
WIRE 704 496 704 400
WIRE 496 560 496 432
WIRE 656 560 656 512
WIRE 656 560 496 560
WIRE 768 560 768 544
WIRE 768 560 656 560
FLAG 256 224 0
FLAG 496 640 0
FLAG 496 -16 0
FLAG 656 -16 0
FLAG 944 336 0
SYMBOL voltage 368 224 R90
WINDOW 0 -32 56 VBottom 2
WINDOW 3 46 215 VTop 2
WINDOW 123 0 0 Left 2
WINDOW 39 0 0 Left 2
SYMATTR InstName V3
SYMATTR Value PULSE(0 5 0 0.0000001 0.0000001 0.0000125 0.000025)
SYMBOL pnp 432 272 M180
SYMATTR InstName Q2
SYMATTR Value BC327-25
SYMBOL res 448 208 R90
WINDOW 0 0 56 VBottom 2
WINDOW 3 32 56 VTop 2
SYMATTR InstName R4
SYMATTR Value 10k
SYMBOL voltage 496 656 R180
WINDOW 0 24 96 Left 2
WINDOW 3 25 18 Left 2
WINDOW 123 0 0 Left 2
WINDOW 39 25 -10 Left 2
SYMATTR InstName V2
SYMATTR Value 12
SYMATTR SpiceLine Rser=5
SYMBOL res 512 448 R180
WINDOW 0 36 76 Left 2
WINDOW 3 36 40 Left 2
SYMATTR InstName R1
SYMATTR Value 10k
SYMBOL voltage 496 80 R180
WINDOW 0 24 96 Left 2
WINDOW 3 24 16 Left 2
WINDOW 123 0 0 Left 2
WINDOW 39 24 68 Left 2
SYMATTR InstName V1
SYMATTR Value 5
SYMATTR SpiceLine Rser=5
SYMBOL voltage 656 80 R180
WINDOW 0 24 96 Left 2
WINDOW 3 24 16 Left 2
WINDOW 123 0 0 Left 2
WINDOW 39 24 -12 Left 2
SYMATTR InstName V4
SYMATTR Value 12
SYMATTR SpiceLine Rser=5
SYMBOL npn 704 448 R0
SYMATTR InstName Q3
SYMATTR Value BC337-25
SYMBOL cap 944 320 R90
WINDOW 0 0 32 VBottom 2
WINDOW 3 32 32 VTop 2
SYMATTR InstName C1
SYMATTR Value 2.55n
SYMBOL diode 752 256 R0
SYMATTR InstName D1
SYMBOL npn 704 160 R0
SYMATTR InstName Q1
SYMATTR Value BC337-25
SYMBOL res 752 64 R0
SYMATTR InstName R2
SYMATTR Value 100
SYMBOL res 640 64 R0
SYMATTR InstName R3
SYMATTR Value 10k
SYMBOL npn 592 256 R0
SYMATTR InstName Q4
SYMATTR Value BC337-25
SYMBOL res 640 416 R0
SYMATTR InstName R5
SYMATTR Value 500
SYMBOL res 512 176 R180
WINDOW 0 36 76 Left 2
WINDOW 3 36 40 Left 2
SYMATTR InstName R6
SYMATTR Value 10k
SYMBOL res 752 352 R0
SYMATTR InstName R7
SYMATTR Value 100
SYMBOL zener 864 320 R90
WINDOW 0 0 32 VBottom 2
WINDOW 3 32 32 VTop 2
SYMATTR InstName D2
SYMATTR Value 1N750
SYMATTR Description Diode
SYMATTR Type diode
TEXT 72 176 Left 2 !.tran 0 0.0001 0
